*Heading
** Job name: RVE_single_fibre Model name: Model-1
** Generated by: Abaqus/CAE 2020
*Preprint, echo=NO, model=NO, history=NO, contact=NO
**
** PARTS
**
*Part, name=Union_part
*Node
      1, 0.00310000009,           0., 0.00800000038
      2, 0.00310000009,           0.,           0.
      3, -0.00400000019, 0.00400000019,           0.
      4, 0.00400000019, 0.00400000019,           0.
      5, 0.00400000019, -0.00400000019,           0.
      6, -0.00400000019, -0.00400000019,           0.
      7, 0.00400000019, -0.00400000019, 0.00800000038
      8, 0.00400000019, 0.00400000019, 0.00800000038
      9, -0.00400000019, 0.00400000019, 0.00800000038
     10, -0.00400000019, -0.00400000019, 0.00800000038
     11, 0.00306183379, -0.000484946853, 0.00800000038
     12, 0.0029482753, -0.000957952696, 0.00800000038
     13, 0.00276212022, -0.00140737055, 0.00800000038
     14, 0.00250795274, -0.00182213425, 0.00800000038
     15, 0.00219203113, -0.00219203113, 0.00800000038
     16, 0.00182213425, -0.00250795274, 0.00800000038
     17, 0.00140737055, -0.00276212022, 0.00800000038
     18, 0.000957952696, -0.0029482753, 0.00800000038
     19, 0.000484946853, -0.00306183379, 0.00800000038
     20,           0., -0.00310000009, 0.00800000038
** ... 5675 like lines cut
*Element, type=C3D6
   1, 2285,  554, 2260,  323,   41,  298
   2, 2260,  552, 2259,  298,   39,  297
   3, 2261,  557,  556,  299,   44,   43
   4, 2232,  551,  550,  270,   38,   37
   5, 2262, 2233,  559,  300,  271,   46
   6, 2266, 2232, 2234,  304,  270,  272
   7, 2265, 2258, 2235,  303,  296,  273
   8, 2233,  560,  559,  271,   47,   46
   9, 2307, 2277, 2290,  345,  315,  328
  10, 2256,  544,  543,  294,   31,   30
  11, 2327, 2309, 2295,  365,  347,  333
  12, 2276, 2255, 2240,  314,  293,  278
  13, 2254,  539,  538,  292,   26,   25
  14, 2282, 2253,  536,  320,  291,   23
  15, 2241,  535,  534,  279,   22,   21
  16, 2304, 2278, 2287,  342,  316,  325
  17, 2278, 2242, 2270,  316,  280,  308
  18, 2333, 2329, 2319,  371,  367,  357
  19, 2274, 2244, 2249,  312,  282,  287
  20, 2279, 2274, 2245,  317,  312,  283
** ... 4652 like lines cut
*Element, type=C3D8
4673,   99, 1164, 1163,  100, 1785, 4177, 4176, 1784
4674,  105, 1183, 1177,  106, 1344, 4196, 4190, 1343
4675, 1141, 1150,   56,   55, 4154, 4163, 1116, 1117
4676, 1152, 1124, 1167, 1168, 4165, 4137, 4180, 4181
4677, 1203, 1195, 1142, 1125, 4216, 4208, 4155, 4138
4678,   85,   84, 1125, 1142, 1087, 1088, 4138, 4155
4679,  129, 1172, 1171,  130, 1560, 4185, 4184, 1559
4680, 1155, 1137, 1208, 1196, 4168, 4150, 4221, 4209
4681,   76,   75, 1155, 1138, 1096, 1097, 4168, 4151
4682,   68,   67, 1148, 1129, 1104, 1105, 4161, 4142
4683, 1126, 1136,   66,   65, 4139, 4149, 1106, 1107
4684,  147, 1173, 1191,  148, 2007, 4186, 4204, 2006
4685, 1224, 1193, 1182, 1143, 4237, 4206, 4195, 4156
4686, 1177, 1202, 1147, 1149, 4190, 4215, 4160, 4162
4687, 1151,   98,   97, 1131, 4164, 1786, 1787, 4144
4688, 1214, 1144,   96,   95, 4227, 4157, 1788, 1789
4689,   63,   62, 1154, 1123, 1109, 1110, 4167, 4136
4690, 1213,   94,   93, 1192, 4226, 1790, 1791, 4205
4691, 1204,  143,  142, 1129, 4217, 2011, 2012, 4142
4692, 1139,  141,  140, 1134, 4152, 2013, 2014, 4147
** ... 2476 like lines cut
*Nset, nset="Fibre cell"
    1,    2,   11,   12,   13,   14,   15,   16,   17,   18,   19,   20,   21,   22,   23,   24
   25,   26,   27,   28,   29,   30,   31,   32,   33,   34,   35,   36,   37,   38,   39,   40
   41,   42,   43,   44,   45,   46,   47,   48,   49,   50,   51,   52,   53,   54,   55,   56
   57,   58,   59,   60,   61,   62,   63,   64,   65,   66,   67,   68,   69,   70,   71,   72
   73,   74,   75,   76,   77,   78,   79,   80,   81,   82,   83,   84,   85,   86,   87,   88
  269,  270,  271,  272,  273,  274,  275,  276,  277,  278,  279,  280,  281,  282,  283,  284
  285,  286,  287,  288,  289,  290,  291,  292,  293,  294,  295,  296,  297,  298,  299,  300
  301,  302,  303,  304,  305,  306,  307,  308,  309,  310,  311,  312,  313,  314,  315,  316
  317,  318,  319,  320,  321,  322,  323,  324,  325,  326,  327,  328,  329,  330,  331,  332
  333,  334,  335,  336,  337,  338,  339,  340,  341,  342,  343,  344,  345,  346,  347,  348
  349,  350,  351,  352,  353,  354,  355,  356,  357,  358,  359,  360,  361,  362,  363,  364
  365,  366,  367,  368,  369,  370,  371,  372,  373,  374,  375,  376,  377,  378,  379,  380
  381,  382,  383,  384,  385,  386,  387,  388,  389,  390,  391,  392,  393,  394,  395,  396
  397,  398,  399,  400,  401,  402,  403,  404,  405,  406,  407,  408,  409,  410,  411,  412
  413,  414,  415,  416,  417,  418,  419,  420,  421,  422,  423,  424,  425,  426,  427,  428
  429,  430,  431,  432,  433,  434,  435,  436,  437,  438,  439,  440,  441,  442,  443,  444
  445,  446,  447,  448,  449,  450,  451,  452,  453,  454,  455,  456,  457,  458,  459,  460
  461,  462,  463,  464,  465,  466,  467,  468,  469,  470,  471,  472,  473,  474,  475,  476
  477,  478,  479,  480,  481,  482,  483,  484,  485,  486,  487,  488,  489,  490,  491,  492
  493,  494,  495,  496,  497,  498,  499,  500,  501,  502,  503,  504,  505,  506,  507,  508
** ... 158 like lines cut
*Elset, elset="Fibre cell", generate
    1,  4672,     1
*Nset, nset="Matrix cell"
    1,    2,    3,    4,    5,    6,    7,    8,    9,   10,   11,   12,   13,   14,   15,   16
   17,   18,   19,   20,   21,   22,   23,   24,   25,   26,   27,   28,   29,   30,   31,   32
   33,   34,   35,   36,   37,   38,   39,   40,   41,   42,   43,   44,   45,   46,   47,   48
   49,   50,   51,   52,   53,   54,   55,   56,   57,   58,   59,   60,   61,   62,   63,   64
   65,   66,   67,   68,   69,   70,   71,   72,   73,   74,   75,   76,   77,   78,   79,   80
   81,   82,   83,   84,   85,   86,   87,   88,   89,   90,   91,   92,   93,   94,   95,   96
   97,   98,   99,  100,  101,  102,  103,  104,  105,  106,  107,  108,  109,  110,  111,  112
  113,  114,  115,  116,  117,  118,  119,  120,  121,  122,  123,  124,  125,  126,  127,  128
  129,  130,  131,  132,  133,  134,  135,  136,  137,  138,  139,  140,  141,  142,  143,  144
  145,  146,  147,  148,  149,  150,  151,  152,  153,  154,  155,  156,  157,  158,  159,  160
  161,  162,  163,  164,  165,  166,  167,  168,  169,  170,  171,  172,  173,  174,  175,  176
  177,  178,  179,  180,  181,  182,  183,  184,  185,  186,  187,  188,  189,  190,  191,  192
  193,  194,  195,  196,  197,  198,  199,  200,  201,  202,  203,  204,  205,  206,  207,  208
  209,  210,  211,  212,  213,  214,  215,  216,  217,  218,  219,  220,  221,  222,  223,  224
  225,  226,  227,  228,  229,  230,  231,  232,  233,  234,  235,  236,  237,  238,  239,  240
  241,  242,  243,  244,  245,  246,  247,  248,  249,  250,  251,  252,  253,  254,  255,  256
  257,  258,  259,  260,  261,  262,  263,  264,  265,  266,  267,  268,  523,  524,  525,  526
  527,  528,  529,  530,  531,  532,  533,  534,  535,  536,  537,  538,  539,  540,  541,  542
  543,  544,  545,  546,  547,  548,  549,  550,  551,  552,  553,  554,  555,  556,  557,  558
  559,  560,  561,  562,  563,  564,  565,  566,  567,  568,  569,  570,  571,  572,  573,  574
** ... 201 like lines cut
*Elset, elset="Matrix cell", generate
 4673,  7168,     1
*Nset, nset=TopS, generate
 1781,  2005,     1
*Nset, nset=BotS, generate
 1556,  1780,     1
*Nset, nset=LeftS, generate
 2006,  2230,     1
*Nset, nset=RightS, generate
 1331,  1555,     1
*Nset, nset=BackS
    2,   50,   51,   52,   53,   54,   55,   56,   57,   58,   59,   60,   61,   62,   63,   64
   65,   66,   67,   68,   69,   70,   71,   72,   73,   74,   75,   76,   77,   78,   79,   80
   81,   82,   83,   84,   85,   86,   87,   88,  396,  397,  398,  399,  400,  401,  402,  403
  404,  405,  406,  407,  408,  409,  410,  411,  412,  413,  414,  415,  416,  417,  418,  419
  420,  421,  422,  423,  424,  425,  426,  427,  428,  429,  430,  431,  432,  433,  434,  435
  436,  437,  438,  439,  440,  441,  442,  443,  444,  445,  446,  447,  448,  449,  450,  451
  452,  453,  454,  455,  456,  457,  458,  459,  460,  461,  462,  463,  464,  465,  466,  467
  468,  469,  470,  471,  472,  473,  474,  475,  476,  477,  478,  479,  480,  481,  482,  483
  484,  485,  486,  487,  488,  489,  490,  491,  492,  493,  494,  495,  496,  497,  498,  499
  500,  501,  502,  503,  504,  505,  506,  507,  508,  509,  510,  511,  512,  513,  514,  515
  516,  517,  518,  519,  520,  521,  522, 1123, 1124, 1125, 1126, 1127, 1128, 1129, 1130, 1131
 1132, 1133, 1134, 1135, 1136, 1137, 1138, 1139, 1140, 1141, 1142, 1143, 1144, 1145, 1146, 1147
 1148, 1149, 1150, 1151, 1152, 1153, 1154, 1155, 1156, 1157, 1158, 1159, 1160, 1161, 1162, 1163
 1164, 1165, 1166, 1167, 1168, 1169, 1170, 1171, 1172, 1173, 1174, 1175, 1176, 1177, 1178, 1179
 1180, 1181, 1182, 1183, 1184, 1185, 1186, 1187, 1188, 1189, 1190, 1191, 1192, 1193, 1194, 1195
 1196, 1197, 1198, 1199, 1200, 1201, 1202, 1203, 1204, 1205, 1206, 1207, 1208, 1209, 1210, 1211
 1212, 1213, 1214, 1215, 1216, 1217, 1218, 1219, 1220, 1221, 1222, 1223, 1224, 1225, 1226
*Nset, nset=FrontS
    1,   11,   12,   13,   14,   15,   16,   17,   18,   19,   20,   21,   22,   23,   24,   25
   26,   27,   28,   29,   30,   31,   32,   33,   34,   35,   36,   37,   38,   39,   40,   41
   42,   43,   44,   45,   46,   47,   48,   49,  269,  270,  271,  272,  273,  274,  275,  276
  277,  278,  279,  280,  281,  282,  283,  284,  285,  286,  287,  288,  289,  290,  291,  292
  293,  294,  295,  296,  297,  298,  299,  300,  301,  302,  303,  304,  305,  306,  307,  308
  309,  310,  311,  312,  313,  314,  315,  316,  317,  318,  319,  320,  321,  322,  323,  324
  325,  326,  327,  328,  329,  330,  331,  332,  333,  334,  335,  336,  337,  338,  339,  340
  341,  342,  343,  344,  345,  346,  347,  348,  349,  350,  351,  352,  353,  354,  355,  356
  357,  358,  359,  360,  361,  362,  363,  364,  365,  366,  367,  368,  369,  370,  371,  372
  373,  374,  375,  376,  377,  378,  379,  380,  381,  382,  383,  384,  385,  386,  387,  388
  389,  390,  391,  392,  393,  394,  395, 1227, 1228, 1229, 1230, 1231, 1232, 1233, 1234, 1235
 1236, 1237, 1238, 1239, 1240, 1241, 1242, 1243, 1244, 1245, 1246, 1247, 1248, 1249, 1250, 1251
 1252, 1253, 1254, 1255, 1256, 1257, 1258, 1259, 1260, 1261, 1262, 1263, 1264, 1265, 1266, 1267
 1268, 1269, 1270, 1271, 1272, 1273, 1274, 1275, 1276, 1277, 1278, 1279, 1280, 1281, 1282, 1283
 1284, 1285, 1286, 1287, 1288, 1289, 1290, 1291, 1292, 1293, 1294, 1295, 1296, 1297, 1298, 1299
 1300, 1301, 1302, 1303, 1304, 1305, 1306, 1307, 1308, 1309, 1310, 1311, 1312, 1313, 1314, 1315
 1316, 1317, 1318, 1319, 1320, 1321, 1322, 1323, 1324, 1325, 1326, 1327, 1328, 1329, 1330
*Nset, nset=FLEdge, generate
 239,  253,    1
*Nset, nset=FREdge, generate
 209,  223,    1
*Nset, nset=FTEdge, generate
 224,  238,    1
*Nset, nset=FBEdge, generate
 254,  268,    1
*Nset, nset=BLEdge, generate
 134,  148,    1
*Nset, nset=BREdge, generate
 104,  118,    1
*Nset, nset=BTEdge, generate
  89,  103,    1
*Nset, nset=BBEdge, generate
 119,  133,    1
*Nset, nset=LTEdge, generate
 194,  208,    1
*Nset, nset=LBEdge, generate
 179,  193,    1
*Nset, nset=RTEdge, generate
 164,  178,    1
*Nset, nset=RBEdge, generate
 149,  163,    1
*Nset, nset=C1
 9,
*Nset, nset=C2
 8,
*Nset, nset=C3
 4,
*Nset, nset=C4
 3,
*Nset, nset=C5
 10,
*Nset, nset=C6
 7,
*Nset, nset=C7
 5,
*Nset, nset=C8
 6,
*Distribution, name=Ori-1-DiscOrient, location=ELEMENT, Table=Ori-1-DiscOrient_Table
** Description: Distribution generated from Discrete Orientation
,           1.,           0.,           0.,           0.,           1.,           0.
1,           0.,           0.,           1.,           1.,           0.,           0.
2,           0.,           0.,           1.,           1.,           0.,           0.
3,           0.,           0.,           1.,           1.,           0.,           0.
4,           0.,           0.,           1.,           1.,           0.,           0.
5,           0.,           0.,           1.,           1.,           0.,           0.
6,           0.,           0.,           1.,           1.,           0.,           0.
7,           0.,           0.,           1.,           1.,           0.,           0.
8,           0.,           0.,           1.,           1.,           0.,           0.
9,           0.,           0.,           1.,           1.,           0.,           0.
10,           0.,           0.,           1.,           1.,           0.,           0.
11,           0.,           0.,           1.,           1.,           0.,           0.
12,           0.,           0.,           1.,           1.,           0.,           0.
13,           0.,           0.,           1.,           1.,           0.,           0.
14,           0.,           0.,           1.,           1.,           0.,           0.
15,           0.,           0.,           1.,           1.,           0.,           0.
16,           0.,           0.,           1.,           1.,           0.,           0.
17,           0.,           0.,           1.,           1.,           0.,           0.
18,           0.,           0.,           1.,           1.,           0.,           0.
19,           0.,           0.,           1.,           1.,           0.,           0.
20,           0.,           0.,           1.,           1.,           0.,           0.
** ... 4652 like lines cut
*Orientation, name=Ori-1, system=RECTANGULAR
Ori-1-DiscOrient
3, 0.
** Section: Fibre section
*Solid Section, elset="Fibre cell", orientation=Ori-1, material=Fibre
,
** Section: Matrix section
*Solid Section, elset="Matrix cell", material=Matrix
,
*End Part
**  
**
** ASSEMBLY
**
*Assembly, name=Assembly
**  
*Instance, name=Union_part-1, part=Union_part
*End Instance
**  
*Node
      1,           0.,           0.,           0.
*Node
      2,           0., -0.00400000019, 0.00400000019
*Node
      3, -0.00400000019,           0., 0.00400000019
*Node
      4,           0.,           0., 0.00800000038
*Node
      5,           0., 0.00400000019, 0.00400000019
*Node
      6, 0.00400000019,           0., 0.00400000019
*Nset, nset=Node1, instance=Union_part-1
 1,
*Nset, nset=Node2, instance=Union_part-1
 2,
*Nset, nset=Node3, instance=Union_part-1
 3,
*Nset, nset=Node4, instance=Union_part-1
 4,
*Nset, nset=Node5, instance=Union_part-1
 5,
*Nset, nset=Node6, instance=Union_part-1
 6,
*Nset, nset=Node7, instance=Union_part-1
 7,
*Nset, nset=Node8, instance=Union_part-1
 8,
*Nset, nset=Node9, instance=Union_part-1
 9,
*Nset, nset=Node10, instance=Union_part-1
 10,
*Nset, nset=Node11, instance=Union_part-1
 11,
*Nset, nset=Node12, instance=Union_part-1
 12,
*Nset, nset=Node13, instance=Union_part-1
 13,
*Nset, nset=Node14, instance=Union_part-1
 14,
*Nset, nset=Node15, instance=Union_part-1
 15,
*Nset, nset=Node16, instance=Union_part-1
 16,
*Nset, nset=Node17, instance=Union_part-1
 17,
*Nset, nset=Node18, instance=Union_part-1
 18,
*Nset, nset=Node19, instance=Union_part-1
 19,
*Nset, nset=Node20, instance=Union_part-1
** ... 3221 like lines cut
*Nset, nset=RP1
 1,
*Nset, nset=RP2
 2,
*Nset, nset=RP3
 3,
*Nset, nset=RP4
 4,
*Nset, nset=RP5
 5,
*Nset, nset=RP6
 6,
*End Assembly
*Distribution Table, name=Ori-1-DiscOrient_Table
coord3D, coord3D
** 
** MATERIALS
** 
*Material, name=Fibre
*Elastic
379300., 0.1
*Material, name=Matrix
*Elastic
68300., 0.3
** ----------------------------------------------------------------
** 
** STEP: Step-1
** 
*Step, name=Step-1, nlgeom=YES, inc=1000
*Static, stabilize=0.0002, allsdtol=0.05, continue=NO
0.1, 1., 1e-15, 0.1
** 
** OUTPUT REQUESTS
** 
*Restart, write, frequency=0
** 
** FIELD OUTPUT: F-Output-1
** 
*Output, field
*Node Output
CF, RF, U
*Element Output, directions=YES
ENER, IVOL, LE, PE, PEEQ, PEMAG, S
*Contact Output
CDISP, CSTRESS
** 
** HISTORY OUTPUT: H-Output-1
** 
*Output, history, variable=PRESELECT
*End Step
