*Heading
** Job name: RVE_single_fibre Model name: Model-1
** Generated by: Abaqus/CAE 2020
*Preprint, echo=NO, model=NO, history=NO, contact=NO
**
** PARTS
**
*Part, name=Union_part
*Node
      1, 0.00310000009,           0., 0.00800000038
      2, 0.00310000009,           0.,           0.
      3, -0.00400000019, 0.00400000019,           0.
      4, 0.00400000019, 0.00400000019,           0.
      5, 0.00400000019, -0.00400000019,           0.
      6, -0.00400000019, -0.00400000019,           0.
      7, 0.00400000019, -0.00400000019, 0.00800000038
      8, 0.00400000019, 0.00400000019, 0.00800000038
      9, -0.00400000019, 0.00400000019, 0.00800000038
     10, -0.00400000019, -0.00400000019, 0.00800000038
     11, 0.0030598559, -0.000497274974, 0.00800000038
     12, 0.0029404629, -0.000981670804, 0.00800000038
     13, 0.00274491357, -0.00144064182, 0.00800000038
     14, 0.00247827265, -0.00186230103, 0.00800000038
     15, 0.00214744546, -0.00223572762, 0.00800000038
     16, 0.00176100072, -0.00255124993, 0.00800000038
     17, 0.00132894691, -0.0028006963, 0.00800000038
     18, 0.000862474146, -0.00297760614, 0.00800000038
     19, 0.000373663701, -0.00307739759, 0.00800000038
     20, -0.000124824408, -0.00309748598, 0.00800000038
** ... 5403 like lines cut
*Element, type=C3D6
   1, 2235,  531, 2211,  318,   40,  294
   2, 2211,  530,  529,  294,   39,   38
   3, 2212,  534,  533,  295,   43,   42
   4, 2185,  529,  528,  268,   38,   37
   5, 2213, 2186,  536,  296,  269,   45
   6, 2209,  525, 2187,  292,   34,  270
   7, 2230, 2226, 2187,  313,  309,  270
   8, 2186,  537,  536,  269,   46,   45
   9, 2189, 2187,  524,  272,  270,   33
  10, 2223, 2190, 2218,  306,  273,  301
  11, 2254, 2232, 2240,  337,  315,  323
  12, 2206,  518,  517,  289,   27,   26
  13, 2205,  515,  514,  288,   24,   23
  14, 2205,  514, 2192,  288,   23,  275
  15, 2221, 2192, 2204,  304,  275,  287
  16, 2203,  509, 2194,  286,   18,  277
  17, 2222, 2194, 2217,  305,  277,  300
  18, 2222, 2203, 2194,  305,  286,  277
  19, 2219, 2196, 2216,  302,  279,  299
  20, 2216, 2201, 2197,  299,  284,  280
** ... 9132 like lines cut
*Nset, nset="Fibre cell"
    1,    2,   11,   12,   13,   14,   15,   16,   17,   18,   19,   20,   21,   22,   23,   24
   25,   26,   27,   28,   29,   30,   31,   32,   33,   34,   35,   36,   37,   38,   39,   40
   41,   42,   43,   44,   45,   46,   47,   48,   49,   50,   51,   52,   53,   54,   55,   56
   57,   58,   59,   60,   61,   62,   63,   64,   65,   66,   67,   68,   69,   70,   71,   72
   73,   74,   75,   76,   77,   78,   79,   80,   81,   82,   83,   84,   85,   86,  267,  268
  269,  270,  271,  272,  273,  274,  275,  276,  277,  278,  279,  280,  281,  282,  283,  284
  285,  286,  287,  288,  289,  290,  291,  292,  293,  294,  295,  296,  297,  298,  299,  300
  301,  302,  303,  304,  305,  306,  307,  308,  309,  310,  311,  312,  313,  314,  315,  316
  317,  318,  319,  320,  321,  322,  323,  324,  325,  326,  327,  328,  329,  330,  331,  332
  333,  334,  335,  336,  337,  338,  339,  340,  341,  342,  343,  344,  345,  346,  347,  348
  349,  350,  351,  352,  353,  354,  355,  356,  357,  358,  359,  360,  361,  362,  363,  364
  365,  366,  367,  368,  369,  370,  371,  372,  373,  374,  375,  376,  377,  378,  379,  380
  381,  382,  383,  384,  385,  386,  387,  388,  389,  390,  391,  392,  393,  394,  395,  396
  397,  398,  399,  400,  401,  402,  403,  404,  405,  406,  407,  408,  409,  410,  411,  412
  413,  414,  415,  416,  417,  418,  419,  420,  421,  422,  423,  424,  425,  426,  427,  428
  429,  430,  431,  432,  433,  434,  435,  436,  437,  438,  439,  440,  441,  442,  443,  444
  445,  446,  447,  448,  449,  450,  451,  452,  453,  454,  455,  456,  457,  458,  459,  460
  461,  462,  463,  464,  465,  466,  467,  468,  469,  470,  471,  472,  473,  474,  475,  476
  477,  478,  479,  480,  481,  482,  483,  484,  485,  486,  487,  488,  489,  490,  491,  492
  493,  494,  495,  496,  497,  498,  499,  500,  501,  502,  503,  504,  505,  506,  507,  508
** ... 146 like lines cut
*Elset, elset="Fibre cell", generate
    1,  4336,     1
*Nset, nset="Matrix cell"
    1,    2,    3,    4,    5,    6,    7,    8,    9,   10,   11,   12,   13,   14,   15,   16
   17,   18,   19,   20,   21,   22,   23,   24,   25,   26,   27,   28,   29,   30,   31,   32
   33,   34,   35,   36,   37,   38,   39,   40,   41,   42,   43,   44,   45,   46,   47,   48
   49,   50,   51,   52,   53,   54,   55,   56,   57,   58,   59,   60,   61,   62,   63,   64
   65,   66,   67,   68,   69,   70,   71,   72,   73,   74,   75,   76,   77,   78,   79,   80
   81,   82,   83,   84,   85,   86,   87,   88,   89,   90,   91,   92,   93,   94,   95,   96
   97,   98,   99,  100,  101,  102,  103,  104,  105,  106,  107,  108,  109,  110,  111,  112
  113,  114,  115,  116,  117,  118,  119,  120,  121,  122,  123,  124,  125,  126,  127,  128
  129,  130,  131,  132,  133,  134,  135,  136,  137,  138,  139,  140,  141,  142,  143,  144
  145,  146,  147,  148,  149,  150,  151,  152,  153,  154,  155,  156,  157,  158,  159,  160
  161,  162,  163,  164,  165,  166,  167,  168,  169,  170,  171,  172,  173,  174,  175,  176
  177,  178,  179,  180,  181,  182,  183,  184,  185,  186,  187,  188,  189,  190,  191,  192
  193,  194,  195,  196,  197,  198,  199,  200,  201,  202,  203,  204,  205,  206,  207,  208
  209,  210,  211,  212,  213,  214,  215,  216,  217,  218,  219,  220,  221,  222,  223,  224
  225,  226,  227,  228,  229,  230,  231,  232,  233,  234,  235,  236,  237,  238,  239,  240
  241,  242,  243,  244,  245,  246,  247,  248,  249,  250,  251,  252,  253,  254,  255,  256
  257,  258,  259,  260,  261,  262,  263,  264,  265,  266,  501,  502,  503,  504,  505,  506
  507,  508,  509,  510,  511,  512,  513,  514,  515,  516,  517,  518,  519,  520,  521,  522
  523,  524,  525,  526,  527,  528,  529,  530,  531,  532,  533,  534,  535,  536,  537,  538
  539,  540,  541,  542,  543,  544,  545,  546,  547,  548,  549,  550,  551,  552,  553,  554
** ... 195 like lines cut
*Elset, elset="Matrix cell", generate
 4337,  9152,     1
*Nset, nset=TopS, generate
 1734,  1958,     1
*Nset, nset=BotS, generate
 1509,  1733,     1
*Nset, nset=LeftS, generate
 1959,  2183,     1
*Nset, nset=RightS, generate
 1284,  1508,     1
*Nset, nset=BackS
    2,   49,   50,   51,   52,   53,   54,   55,   56,   57,   58,   59,   60,   61,   62,   63
   64,   65,   66,   67,   68,   69,   70,   71,   72,   73,   74,   75,   76,   77,   78,   79
   80,   81,   82,   83,   84,   85,   86,  384,  385,  386,  387,  388,  389,  390,  391,  392
  393,  394,  395,  396,  397,  398,  399,  400,  401,  402,  403,  404,  405,  406,  407,  408
  409,  410,  411,  412,  413,  414,  415,  416,  417,  418,  419,  420,  421,  422,  423,  424
  425,  426,  427,  428,  429,  430,  431,  432,  433,  434,  435,  436,  437,  438,  439,  440
  441,  442,  443,  444,  445,  446,  447,  448,  449,  450,  451,  452,  453,  454,  455,  456
  457,  458,  459,  460,  461,  462,  463,  464,  465,  466,  467,  468,  469,  470,  471,  472
  473,  474,  475,  476,  477,  478,  479,  480,  481,  482,  483,  484,  485,  486,  487,  488
  489,  490,  491,  492,  493,  494,  495,  496,  497,  498,  499,  500, 1086, 1087, 1088, 1089
 1090, 1091, 1092, 1093, 1094, 1095, 1096, 1097, 1098, 1099, 1100, 1101, 1102, 1103, 1104, 1105
 1106, 1107, 1108, 1109, 1110, 1111, 1112, 1113, 1114, 1115, 1116, 1117, 1118, 1119, 1120, 1121
 1122, 1123, 1124, 1125, 1126, 1127, 1128, 1129, 1130, 1131, 1132, 1133, 1134, 1135, 1136, 1137
 1138, 1139, 1140, 1141, 1142, 1143, 1144, 1145, 1146, 1147, 1148, 1149, 1150, 1151, 1152, 1153
 1154, 1155, 1156, 1157, 1158, 1159, 1160, 1161, 1162, 1163, 1164, 1165, 1166, 1167, 1168, 1169
 1170, 1171, 1172, 1173, 1174, 1175, 1176, 1177, 1178, 1179, 1180, 1181, 1182, 1183, 1184
*Nset, nset=FrontS
    1,   11,   12,   13,   14,   15,   16,   17,   18,   19,   20,   21,   22,   23,   24,   25
   26,   27,   28,   29,   30,   31,   32,   33,   34,   35,   36,   37,   38,   39,   40,   41
   42,   43,   44,   45,   46,   47,   48,  267,  268,  269,  270,  271,  272,  273,  274,  275
  276,  277,  278,  279,  280,  281,  282,  283,  284,  285,  286,  287,  288,  289,  290,  291
  292,  293,  294,  295,  296,  297,  298,  299,  300,  301,  302,  303,  304,  305,  306,  307
  308,  309,  310,  311,  312,  313,  314,  315,  316,  317,  318,  319,  320,  321,  322,  323
  324,  325,  326,  327,  328,  329,  330,  331,  332,  333,  334,  335,  336,  337,  338,  339
  340,  341,  342,  343,  344,  345,  346,  347,  348,  349,  350,  351,  352,  353,  354,  355
  356,  357,  358,  359,  360,  361,  362,  363,  364,  365,  366,  367,  368,  369,  370,  371
  372,  373,  374,  375,  376,  377,  378,  379,  380,  381,  382,  383, 1185, 1186, 1187, 1188
 1189, 1190, 1191, 1192, 1193, 1194, 1195, 1196, 1197, 1198, 1199, 1200, 1201, 1202, 1203, 1204
 1205, 1206, 1207, 1208, 1209, 1210, 1211, 1212, 1213, 1214, 1215, 1216, 1217, 1218, 1219, 1220
 1221, 1222, 1223, 1224, 1225, 1226, 1227, 1228, 1229, 1230, 1231, 1232, 1233, 1234, 1235, 1236
 1237, 1238, 1239, 1240, 1241, 1242, 1243, 1244, 1245, 1246, 1247, 1248, 1249, 1250, 1251, 1252
 1253, 1254, 1255, 1256, 1257, 1258, 1259, 1260, 1261, 1262, 1263, 1264, 1265, 1266, 1267, 1268
 1269, 1270, 1271, 1272, 1273, 1274, 1275, 1276, 1277, 1278, 1279, 1280, 1281, 1282, 1283
*Nset, nset=FLEdge, generate
 237,  251,    1
*Nset, nset=FREdge, generate
 207,  221,    1
*Nset, nset=FTEdge, generate
 222,  236,    1
*Nset, nset=FBEdge, generate
 252,  266,    1
*Nset, nset=BLEdge, generate
 132,  146,    1
*Nset, nset=BREdge, generate
 102,  116,    1
*Nset, nset=BTEdge, generate
  87,  101,    1
*Nset, nset=BBEdge, generate
 117,  131,    1
*Nset, nset=LTEdge, generate
 192,  206,    1
*Nset, nset=LBEdge, generate
 177,  191,    1
*Nset, nset=RTEdge, generate
 162,  176,    1
*Nset, nset=RBEdge, generate
 147,  161,    1
*Nset, nset=C1
 9,
*Nset, nset=C2
 8,
*Nset, nset=C3
 4,
*Nset, nset=C4
 3,
*Nset, nset=C5
 10,
*Nset, nset=C6
 7,
*Nset, nset=C7
 5,
*Nset, nset=C8
 6,
** Section: Fibre section
*Solid Section, elset="Fibre cell", material=Fibre
,
** Section: Matrix section
*Solid Section, elset="Matrix cell", material=Matrix
,
*End Part
**  
**
** ASSEMBLY
**
*Assembly, name=Assembly
**  
*Instance, name=Union_part-1, part=Union_part
*End Instance
**  
*Node
      1,           0.,           0.,           0.
*Node
      2,           0., -0.00400000019, 0.00400000019
*Node
      3, -0.00400000019,           0., 0.00400000019
*Node
      4,           0.,           0., 0.00800000038
*Node
      5,           0., 0.00400000019, 0.00400000019
*Node
      6, 0.00400000019,           0., 0.00400000019
*Nset, nset=Node1, instance=Union_part-1
 1,
*Nset, nset=Node2, instance=Union_part-1
 2,
*Nset, nset=Node3, instance=Union_part-1
 3,
*Nset, nset=Node4, instance=Union_part-1
 4,
*Nset, nset=Node5, instance=Union_part-1
 5,
*Nset, nset=Node6, instance=Union_part-1
 6,
*Nset, nset=Node7, instance=Union_part-1
 7,
*Nset, nset=Node8, instance=Union_part-1
 8,
*Nset, nset=Node9, instance=Union_part-1
 9,
*Nset, nset=Node10, instance=Union_part-1
 10,
*Nset, nset=Node11, instance=Union_part-1
 11,
*Nset, nset=Node12, instance=Union_part-1
 12,
*Nset, nset=Node13, instance=Union_part-1
 13,
*Nset, nset=Node14, instance=Union_part-1
 14,
*Nset, nset=Node15, instance=Union_part-1
 15,
*Nset, nset=Node16, instance=Union_part-1
 16,
*Nset, nset=Node17, instance=Union_part-1
 17,
*Nset, nset=Node18, instance=Union_part-1
 18,
*Nset, nset=Node19, instance=Union_part-1
 19,
*Nset, nset=Node20, instance=Union_part-1
** ... 3157 like lines cut
*Nset, nset=RP1
 1,
*Nset, nset=RP2
 2,
*Nset, nset=RP3
 3,
*Nset, nset=RP4
 4,
*Nset, nset=RP5
 5,
*Nset, nset=RP6
 6,
*End Assembly
** 
** MATERIALS
** 
*Material, name=Fibre
*Elastic
379300., 0.1
*Material, name=Matrix
*Elastic
68300., 0.3
** ----------------------------------------------------------------
** 
** STEP: Step-1
** 
*Step, name=Step-1, nlgeom=YES, inc=1000
*Static
0.1, 1., 1e-05, 1.
** 
** OUTPUT REQUESTS
** 
*Restart, write, frequency=0
** 
** FIELD OUTPUT: F-Output-1
** 
*Output, field
*Node Output
CF, RF, U
*Element Output, directions=YES
ENER, IVOL, LE, PE, PEEQ, PEMAG, S
*Contact Output
CDISP, CSTRESS
** 
** HISTORY OUTPUT: H-Output-1
** 
*Output, history, variable=PRESELECT
*End Step
